engines/SCOPF_R5/input_data/Location_1.m
function mpc = Location_1
%LOCATION_1
%   PSS(R)E-33.9    THU, DEC 03 2020  10:12
%   CREATED BY NETVISION RAW CONVERTER FROM FILES: NDC_2020-07-0
%   , BEGIN BUS DATA
%
%   Converted by MATPOWER 7.0 using PSSE2MPC on 03-Dec-2020
%   from 'Location 1.raw' using PSS/E rev 33 format.
%
%   WARNINGS:
%       Conversion explicitly using PSS/E revision 33
%       Skipped 1 line of zone data.
%
%   See CASEFORMAT for details on the MATPOWER case file format.

%% MATPOWER Case Format : Version 2
mpc.version = '2';

%%-----  Power Flow Data  -----%%
%% system MVA base
mpc.baseMVA = 100;

%% bus data
%	bus_i	type	Pd	Qd	Gs	Bs	area	Vm	Va	baseKV	zone	Vmax	Vmin
mpc.bus = [
	1	1	3.699	3.153	0	0	8	1.04076	-0.8423	110	1	1.1	0.9;
	2	1	25.397	-0.4	0	0	8	1.00605	-5.0806	35	1	1.1	0.9;
	3	1	38.622	2.379	0	0	8	1.04213	0.7361	110	1	1.1	0.9;
	4	1	46.624	7.775	0	0.998	8	1.06237	-1.4131	110	1	1.1	0.9;
	5	1	9.816	1.853	0	0	8	1.04188	-1.7533	110	1	1.1	0.9;
	7	2	0	0	0	0	8	1.05134	2.0112	110	1	1.1	0.9;
	8	1	-97.315	0	-1.471	7.905	8	1.07206	0.7242	220	1	1.1	0.9;
	9	1	-18.896	28.754	0	0.413	8	1.0475	1.4513	110	1	1.1	0.9;
	10	2	32.695	4.319	0	0	8	1.05368	-0.8311	110	1	1.1	0.9;
	11	1	-159.324	145.316	28.747	64.457	8	1.03554	-0.0149	400	1	1.1	0.9;
	12	1	188.523	-0.146	0.125	22.736	8	1.07663	-1.6108	110	1	1.1	0.9;
	13	3	-20.579	-11.231	0.009	84.918	8	1.0422	0	400	1	1.1	0.9;
	14	1	-108.905	33.194	0.001	5.586	8	1.08041	0.9418	220	1	1.1	0.9;
	15	1	4.318	-7.359	0	0	8	1.06321	-1.0922	110	1	1.1	0.9;
	16	1	33.231	3.907	0	0	8	1.04322	0.8247	110	1	1.1	0.9;
	17	1	8.225	-0.011	0	0	8	1.04337	0.8033	110	1	1.1	0.9;
	18	1	-0.016	-1.527	0	0	8	1.06304	-1.2748	110	1	1.1	0.9;
	19	1	0	0	0	0	8	1.03751	-1.4039	110	1	1.1	0.9;
	20	1	4.325	-0.516	0	0	8	1.00817	-2.9058	35	1	1.1	0.9;
	21	1	9.66	-0.063	0	0	8	1.00196	-4.8485	35	1	1.1	0.9;
	26	1	30.048	3.831	0	0	8	1.05832	-1.5895	110	1	1.1	0.9;
	29	1	0	0	0	0	8	1.04183	0.0561	110	1	1.1	0.9;
	30	1	14.775	-0.358	0	0	8	1.00543	-4.832	35	1	1.1	0.9;
	34	2	0	0	0	0	8	1.04461	0.9521	110	1	1.1	0.9;
	35	1	15.905	1.773	0	0	8	1.04343	0.571	110	1	1.1	0.9;
	36	2	-0.806	2.103	0	0	8	1.04442	0.5048	110	1	1.1	0.9;
	42	1	21.279	1.852	0	0	8	1.05271	-1.9202	110	1	1.1	0.9;
	55	1	7.106	1.058	0	0	8	1.04802	-1.4136	110	1	1.1	0.9;
	68	1	5.707	2.486	0	0	8	1.04125	-1.7963	110	1	1.1	0.9;
	72	1	11.649	8.017	0.014	1.166	8	1.07148	-0.9664	110	1	1.1	0.9;
	103	1	62.909	12.673	-0.014	1.146	8	1.06251	-1.4519	110	1	1.1	0.9;
];

%% generator data
%	bus	Pg	Qg	Qmax	Qmin	Vg	mBase	status	Pmax	Pmin	Pc1	Pc2	Qc1min	Qc1max	Qc2min	Qc2max	ramp_agc	ramp_10	ramp_30	ramp_q	apf
mpc.gen = [
	7	44.158	3.623	25	-4	1.05134	55	1	47.5	18	0	0	0	0	0	0	0	0	0	0	0;
	7	45.34	3.72	25	-4	1.05134	55	1	47.5	18	0	0	0	0	0	0	0	0	0	0	0;
	10	0	0	8	-2.8	1.05368	35.95	0	30.55	5	0	0	0	0	0	0	0	0	0	0	0;
	10	0	0	8	-2.8	1.05368	35.95	0	30.55	5	0	0	0	0	0	0	0	0	0	0	0;
	10	0	0	13	-12	1.05368	16	0	12.8	3	0	0	0	0	0	0	0	0	0	0	0;
	10	0	-1.349	13	-12	1.05368	16	1	12.8	3	0	0	0	0	0	0	0	0	0	0	0;
	13	0.315	-0.015	9999	-9999	1.0422	100	1	9999	-9999	0	0	0	0	0	0	0	0	0	0	0;
	34	37.044	-1.443	21	-12.6	1.04461	42	1	40	15	0	0	0	0	0	0	0	0	0	0	0;
	34	37.202	-1.449	21	-12.6	1.04461	42	1	40	15	0	0	0	0	0	0	0	0	0	0	0;
	36	0	0	20	-8.4	1.04442	42	0	40	0.01	0	0	0	0	0	0	0	0	0	0	0;
	36	38.287	0.337	20	-8.4	1.04442	42	1	40	0.01	0	0	0	0	0	0	0	0	0	0	0;
];

%% branch data
%	fbus	tbus	r	x	b	rateA	rateB	rateC	ratio	angle	status	angmin	angmax
mpc.branch = [
	1	5	0.0318347	0.108769	0.01053	123	0	0	0	0	1	-360	360;
	1	19	0.0221157	0.075562	0.00731	123	0	0	0	0	1	-360	360;
	1	29	0.0193388	0.0676859	0.00649	123	0	0	0	0	1	-360	360;
	1	36	0.0169587	0.0593554	0.00563	123	0	0	0	0	1	-360	360;
	1	55	0.0318645	0.109785	0.01062	123	0	0	0	0	1	-360	360;
	3	9	0.0215124	0.0475537	0.00449	90	0	0	0	0	1	-360	360;
	3	34	0.0121984	0.0426942	0.00405	123	0	0	0	0	1	-360	360;
	4	15	0.00300826	0.0218099	0.00396	300	0	0	0	0	1	-360	360;
	4	15	0.00300826	0.0218099	0.00396	300	0	0	0	0	1	-360	360;
	4	103	0.00338843	0.0114876	0.00111	123	0	0	0	0	1	-360	360;
	4	103	0.00338843	0.0118182	0.00112	123	0	0	0	0	1	-360	360;
	5	42	0.057314	0.126694	0.01201	90	0	0	0	0	1	-360	360;
	5	68	0.00476033	0.0162645	0.00157	123	0	0	0	0	1	-360	360;
	7	9	0.00704132	0.0246446	0.00234	123	0	0	0	0	1	-360	360;
	7	9	0.00704132	0.0246446	0.00234	123	0	0	0	0	1	-360	360;
	8	11	0.0152652	0.178394	0	0	0	0	0	0	1	-360	360;
	8	12	0.289145	0.884317	0	0	0	0	0	0	1	-360	360;
	8	13	0.141404	0.709864	0	0	0	0	0	0	1	-360	360;
	8	14	0.00436364	0.0223636	0.03552	311	0	0	0	0	1	-360	360;
	8	72	0.0336347	0.182101	0	0	0	0	0	0	1	-360	360;
	9	10	0.036	0.1218	0.0119	123	0	0	0	0	1	-360	360;
	9	10	0.163574	0.595417	0	0	0	0	0	0	1	-360	360;
	9	12	0.212217	0.784283	0	0	0	0	0	0	1	-360	360;
	9	16	0.010314	0.0348959	0.00341	123	0	0	0	0	1	-360	360;
	10	12	0.083141	0.283228	0	0	0	0	0	0	1	-360	360;
	10	15	0.0221157	0.077405	0.00731	123	0	0	0	0	1	-360	360;
	11	12	0.0982809	0.553259	0	0	0	0	0	0	1	-360	360;
	11	13	0.00114375	0.011895	0.3377	1330	0	0	0	0	1	-360	360;
	12	72	0.0206281	0.0704793	0.00682	123	0	0	0	0	1	-360	360;
	12	72	0.0206281	0.0704793	0.00682	123	0	0	0	0	1	-360	360;
	13	72	0.325062	0.961732	0	0	0	0	0	0	1	-360	360;
	15	18	0.00644628	0.0220248	0.00216	123	0	0	0	0	1	-360	360;
	15	26	0.0138843	0.047438	0.00461	123	0	0	0	0	1	-360	360;
	16	17	0.00560331	0.0196116	0.00186	123	0	0	0	0	1	-360	360;
	17	34	0.0129422	0.0452975	0.0043	123	0	0	0	0	1	-360	360;
	18	103	0.00644628	0.0220248	0.00216	123	0	0	0	0	1	-360	360;
	26	55	0.036	0.1218	0.0119	123	0	0	0	0	1	-360	360;
	26	103	0.0137124	0.0459702	0.00446	123	0	0	0	0	1	-360	360;
	29	34	0.0121984	0.0426942	0.00403	123	0	0	0	0	1	-360	360;
	34	35	0.0112066	0.0379157	0.00371	123	0	0	0	0	1	-360	360;
	35	36	0.0100165	0.0350579	0.00332	123	0	0	0	0	1	-360	360;
	42	72	0.0460083	0.101702	0.00961	90	0	0	0	0	1	-360	360;
	72	103	0.021124	0.0739339	0.00701	123	0	0	0	0	1	-360	360;
	72	103	0.021124	0.0739339	0.00701	123	0	0	0	0	1	-360	360;
	72	103	0.0180192	0.0836813	0	230	0	0	0	0	1	-360	360;
	1	2	0.009038	0.268098	0	40	0	0	1.03030303	0	1	-360	360;
	1	2	0.009038	0.268098	0	40	48	48	1.03030303	0	0	-360	360;
	8	72	0.00164444	0.0699807	0	150	0	0	0.991913043	0	1	-360	360;
	8	72	0.00164889	0.0699806	0	150	0	0	0.991913043	0	1	-360	360;
	11	12	0.00070911	0.0415606	0	300	0	0	0.956521739	0	1	-360	360;
	11	12	0.00069756	0.0425609	0	300	0	0	0.956521739	0	1	-360	360;
	13	14	0.00036456	0.0317479	0	400	0	0	0.947619048	0.46	1	-360	360;
	13	15	0.00052633	0.0407299	0	300	0	0	0.978521739	0	1	-360	360;
	13	15	0.00054233	0.0407964	0	300	0	0	0.978521739	0	1	-360	360;
	19	20	0.0339725	0.553959	0	20	24	24	1.03030303	0	1	-360	360;
	19	21	0.0339725	0.568987	0	20	24	24	1.03030303	0	1	-360	360;
	29	30	0.04191	0.524328	0	20	24	24	1.03030303	0	0	-360	360;
	29	30	0.0256818	0.531198	0	22	26.4	26.4	1.03030303	0	1	-360	360;
];

%% bus names
mpc.bus_name = {
	'SUBST01     ';
	'SUBST02     ';
	'SUBST3      ';
	'SUBST4      ';
	'SUBST5      ';
	'SUBST7      ';
	'SUBST8      ';
	'SUBST9      ';
	'SUBST10     ';
	'SUBST11     ';
	'SUBST12     ';
	'SUBST13     ';
	'SUBST14     ';
	'SUBST15     ';
	'SUBST16     ';
	'SUBST17     ';
	'SUBST18     ';
	'SUBST19     ';
	'SUBST20     ';
	'SUBST21     ';
	'SUBST26     ';
	'SUBST29     ';
	'SUBST30     ';
	'SUBST34     ';
	'SUBST35     ';
	'SUBST36     ';
	'SUBST42     ';
	'SUBST55     ';
	'SUBST68     ';
	'SUBST72     ';
	'SUBST103    ';
};
